
                                  MODFLOW-2000
    U.S. GEOLOGICAL SURVEY MODULAR FINITE-DIFFERENCE GROUND-WATER FLOW MODEL
                             Version 1.19.01 03/25/2010                      

 Using NAME file: mf2k.nam                                                                                                                                                                                                
 Run start date and time (yyyy/mm/dd hh:mm:ss): 2017/04/11 21:55:08

 Run end date and time (yyyy/mm/dd hh:mm:ss): 2017/04/11 21:55:08
 Elapsed run time:  0.030 Seconds

 Normal termination of MODFLOW-2000
 MT3DMS - Modular 3-D Multi-Species Transport Model [Version 5.30]
 Developed at University of Alabama for U.S. Department of Defense

 Using NAME File: mt3d.nam                                          

 STRESS PERIOD NO.    1

 TIME STEP NO.    1
 FROM TIME =   0.0000     TO   0.50000    

 Transport Step:    1   Step Size:  0.4573     Total Elapsed Time:  0.45726    
 Outer Iter.  1  Inner Iter.  1:  Max. DC =  0.6083E-01  [K,I,J]    1    5    2
 Outer Iter.  1  Inner Iter.  2:  Max. DC =  0.1492E-01  [K,I,J]    1    7    4
 Outer Iter.  1  Inner Iter.  3:  Max. DC =  0.5245E-02  [K,I,J]    1    7    5
 Outer Iter.  1  Inner Iter.  4:  Max. DC =  0.1774E-02  [K,I,J]    1    7    6
 Outer Iter.  1  Inner Iter.  5:  Max. DC =  0.5760E-03  [K,I,J]    1    7    7
 Outer Iter.  1  Inner Iter.  6:  Max. DC =  0.1752E-03  [K,I,J]    1    7    8
 Outer Iter.  1  Inner Iter.  7:  Max. DC =  0.5415E-04  [K,I,J]    1    7    9
 Transport Step:    2   Step Size:  4.2741E-02 Total Elapsed Time:  0.50000    
 Outer Iter.  1  Inner Iter.  1:  Max. DC =  0.4981E-02  [K,I,J]    1    5    2
 Outer Iter.  1  Inner Iter.  2:  Max. DC =  0.3301E-03  [K,I,J]    1    7    4
 Outer Iter.  1  Inner Iter.  3:  Max. DC =  0.2211E-04  [K,I,J]    1    7    5

 TIME STEP NO.    2
 FROM TIME =  0.50000     TO    1.0000    

 Transport Step:    1   Step Size:  0.4606     Total Elapsed Time:  0.96065    
 Outer Iter.  1  Inner Iter.  1:  Max. DC =  0.3578E-01  [K,I,J]    1    5    2
 Outer Iter.  1  Inner Iter.  2:  Max. DC =  0.1476E-01  [K,I,J]    1    7    4
 Outer Iter.  1  Inner Iter.  3:  Max. DC =  0.5361E-02  [K,I,J]    1    7    5
 Outer Iter.  1  Inner Iter.  4:  Max. DC =  0.1900E-02  [K,I,J]    1    7    6
 Outer Iter.  1  Inner Iter.  5:  Max. DC =  0.6185E-03  [K,I,J]    1    7    7
 Outer Iter.  1  Inner Iter.  6:  Max. DC =  0.1663E-03  [K,I,J]    1    7    8
 Outer Iter.  1  Inner Iter.  7:  Max. DC =  0.5049E-04  [K,I,J]    1    7    9
 Transport Step:    2   Step Size:  3.9354E-02 Total Elapsed Time:   1.0000    
 Outer Iter.  1  Inner Iter.  1:  Max. DC =  0.3181E-02  [K,I,J]    1    7    3
 Outer Iter.  1  Inner Iter.  2:  Max. DC =  0.2608E-03  [K,I,J]    1    7    4
 Outer Iter.  1  Inner Iter.  3:  Max. DC =  0.1615E-04  [K,I,J]    1    7    5

 TIME STEP NO.    3
 FROM TIME =   1.0000     TO    1.5000    

 Transport Step:    1   Step Size:  0.4609     Total Elapsed Time:   1.4609    
 Outer Iter.  1  Inner Iter.  1:  Max. DC =  0.3029E-01  [K,I,J]    1    4    2
 Outer Iter.  1  Inner Iter.  2:  Max. DC =  0.1399E-01  [K,I,J]    1    7    4
 Outer Iter.  1  Inner Iter.  3:  Max. DC =  0.5346E-02  [K,I,J]    1    7    5
 Outer Iter.  1  Inner Iter.  4:  Max. DC =  0.1929E-02  [K,I,J]    1    7    6
 Outer Iter.  1  Inner Iter.  5:  Max. DC =  0.6018E-03  [K,I,J]    1    7    7
 Outer Iter.  1  Inner Iter.  6:  Max. DC =  0.1426E-03  [K,I,J]    1    7    8
 Outer Iter.  1  Inner Iter.  7:  Max. DC =  0.4727E-04  [K,I,J]    1   12    6
 Transport Step:    2   Step Size:  3.9090E-02 Total Elapsed Time:   1.5000    
 Outer Iter.  1  Inner Iter.  1:  Max. DC =  0.2962E-02  [K,I,J]    1    7    3
 Outer Iter.  1  Inner Iter.  2:  Max. DC =  0.2412E-03  [K,I,J]    1    7    4
 Outer Iter.  1  Inner Iter.  3:  Max. DC =  0.1532E-04  [K,I,J]    1    7    5

 TIME STEP NO.    4
 FROM TIME =   1.5000     TO    2.0000    

 Transport Step:    1   Step Size:  0.4610     Total Elapsed Time:   1.9610    
 Outer Iter.  1  Inner Iter.  1:  Max. DC =  0.2840E-01  [K,I,J]    1    2    2
 Outer Iter.  1  Inner Iter.  2:  Max. DC =  0.1319E-01  [K,I,J]    1    7    4
 Outer Iter.  1  Inner Iter.  3:  Max. DC =  0.5248E-02  [K,I,J]    1    7    5
 Outer Iter.  1  Inner Iter.  4:  Max. DC =  0.1923E-02  [K,I,J]    1    7    6
 Outer Iter.  1  Inner Iter.  5:  Max. DC =  0.5748E-03  [K,I,J]    1    7    7
 Outer Iter.  1  Inner Iter.  6:  Max. DC =  0.1190E-03  [K,I,J]    1    7    8
 Outer Iter.  1  Inner Iter.  7:  Max. DC =  0.4852E-04  [K,I,J]    1   12    6
 Transport Step:    2   Step Size:  3.9018E-02 Total Elapsed Time:   2.0000    
 Outer Iter.  1  Inner Iter.  1:  Max. DC =  0.2771E-02  [K,I,J]    1    7    3
 Outer Iter.  1  Inner Iter.  2:  Max. DC =  0.2266E-03  [K,I,J]    1    7    4
 Outer Iter.  1  Inner Iter.  3:  Max. DC =  0.1496E-04  [K,I,J]    1    7    5

 TIME STEP NO.    5
 FROM TIME =   2.0000     TO    2.5000    

 Transport Step:    1   Step Size:  0.4609     Total Elapsed Time:   2.4609    
 Outer Iter.  1  Inner Iter.  1:  Max. DC =  0.2727E-01  [K,I,J]    1    2    2
 Outer Iter.  1  Inner Iter.  2:  Max. DC =  0.1241E-01  [K,I,J]    1    7    4
 Outer Iter.  1  Inner Iter.  3:  Max. DC =  0.5088E-02  [K,I,J]    1    7    5
 Outer Iter.  1  Inner Iter.  4:  Max. DC =  0.1899E-02  [K,I,J]    1    7    6
 Outer Iter.  1  Inner Iter.  5:  Max. DC =  0.5544E-03  [K,I,J]    1    7    7
 Outer Iter.  1  Inner Iter.  6:  Max. DC =  0.1116E-03  [K,I,J]    1   13    5
 Outer Iter.  1  Inner Iter.  7:  Max. DC =  0.4870E-04  [K,I,J]    1   12    6
 Transport Step:    2   Step Size:  3.9093E-02 Total Elapsed Time:   2.5000    
 Outer Iter.  1  Inner Iter.  1:  Max. DC =  0.2612E-02  [K,I,J]    1    7    3
 Outer Iter.  1  Inner Iter.  2:  Max. DC =  0.2145E-03  [K,I,J]    1    7    4
 Outer Iter.  1  Inner Iter.  3:  Max. DC =  0.1496E-04  [K,I,J]    1    7    5

 TIME STEP NO.    6
 FROM TIME =   2.5000     TO    3.0000    

 Transport Step:    1   Step Size:  0.4610     Total Elapsed Time:   2.9610    
 Outer Iter.  1  Inner Iter.  1:  Max. DC =  0.2787E-01  [K,I,J]    1   12   10
 Outer Iter.  1  Inner Iter.  2:  Max. DC =  0.1170E-01  [K,I,J]    1    7    4
 Outer Iter.  1  Inner Iter.  3:  Max. DC =  0.4900E-02  [K,I,J]    1    7    5
 Outer Iter.  1  Inner Iter.  4:  Max. DC =  0.1874E-02  [K,I,J]    1    7    6
 Outer Iter.  1  Inner Iter.  5:  Max. DC =  0.5485E-03  [K,I,J]    1    7    7
 Outer Iter.  1  Inner Iter.  6:  Max. DC =  0.1271E-03  [K,I,J]    1   13    5
 Outer Iter.  1  Inner Iter.  7:  Max. DC =  0.4822E-04  [K,I,J]    1   12    6
 Transport Step:    2   Step Size:  3.9037E-02 Total Elapsed Time:   3.0000    
 Outer Iter.  1  Inner Iter.  1:  Max. DC =  0.2863E-02  [K,I,J]    1   12   10
 Outer Iter.  1  Inner Iter.  2:  Max. DC =  0.2021E-03  [K,I,J]    1    7    4
 Outer Iter.  1  Inner Iter.  3:  Max. DC =  0.1484E-04  [K,I,J]    1    7    5

 TIME STEP NO.    7
 FROM TIME =   3.0000     TO    3.5000    

 Transport Step:    1   Step Size:  0.4609     Total Elapsed Time:   3.4609    
 Outer Iter.  1  Inner Iter.  1:  Max. DC =  0.3046E-01  [K,I,J]    1   12   10
 Outer Iter.  1  Inner Iter.  2:  Max. DC =  0.1240E-01  [K,I,J]    1   12    9
 Outer Iter.  1  Inner Iter.  3:  Max. DC =  0.4703E-02  [K,I,J]    1    7    5
 Outer Iter.  1  Inner Iter.  4:  Max. DC =  0.1849E-02  [K,I,J]    1    7    6
 Outer Iter.  1  Inner Iter.  5:  Max. DC =  0.5528E-03  [K,I,J]    1    7    7
 Outer Iter.  1  Inner Iter.  6:  Max. DC =  0.1446E-03  [K,I,J]    1   13    5
 Outer Iter.  1  Inner Iter.  7:  Max. DC =  0.4756E-04  [K,I,J]    1   12    6
 Transport Step:    2   Step Size:  3.9076E-02 Total Elapsed Time:   3.5000    
 Outer Iter.  1  Inner Iter.  1:  Max. DC =  0.3146E-02  [K,I,J]    1   12   10
 Outer Iter.  1  Inner Iter.  2:  Max. DC =  0.1922E-03  [K,I,J]    1    7    4
 Outer Iter.  1  Inner Iter.  3:  Max. DC =  0.1490E-04  [K,I,J]    1    7    5

 TIME STEP NO.    8
 FROM TIME =   3.5000     TO    4.0000    

 Transport Step:    1   Step Size:  0.4610     Total Elapsed Time:   3.9610    
 Outer Iter.  1  Inner Iter.  1:  Max. DC =  0.3349E-01  [K,I,J]    1   13   10
 Outer Iter.  1  Inner Iter.  2:  Max. DC =  0.1347E-01  [K,I,J]    1   12    9
 Outer Iter.  1  Inner Iter.  3:  Max. DC =  0.4514E-02  [K,I,J]    1    7    5
 Outer Iter.  1  Inner Iter.  4:  Max. DC =  0.1830E-02  [K,I,J]    1    7    6
 Outer Iter.  1  Inner Iter.  5:  Max. DC =  0.5668E-03  [K,I,J]    1    7    7
 Outer Iter.  1  Inner Iter.  6:  Max. DC =  0.1632E-03  [K,I,J]    1   13    5
 Outer Iter.  1  Inner Iter.  7:  Max. DC =  0.5203E-04  [K,I,J]    1    7    5
 Transport Step:    2   Step Size:  3.9046E-02 Total Elapsed Time:   4.0000    
 Outer Iter.  1  Inner Iter.  1:  Max. DC =  0.3410E-02  [K,I,J]    1   13   10
 Outer Iter.  1  Inner Iter.  2:  Max. DC =  0.1904E-03  [K,I,J]    1   13    9
 Outer Iter.  1  Inner Iter.  3:  Max. DC =  0.1484E-04  [K,I,J]    1    7    5

 TIME STEP NO.    9
 FROM TIME =   4.0000     TO    4.5000    

 Transport Step:    1   Step Size:  0.4609     Total Elapsed Time:   4.4609    
 Outer Iter.  1  Inner Iter.  1:  Max. DC =  0.3658E-01  [K,I,J]    1   13   10
 Outer Iter.  1  Inner Iter.  2:  Max. DC =  0.1446E-01  [K,I,J]    1   13    9
 Outer Iter.  1  Inner Iter.  3:  Max. DC =  0.4969E-02  [K,I,J]    1   13    8
 Outer Iter.  1  Inner Iter.  4:  Max. DC =  0.1786E-02  [K,I,J]    1    7    6
 Outer Iter.  1  Inner Iter.  5:  Max. DC =  0.5776E-03  [K,I,J]    1    7    7
 Outer Iter.  1  Inner Iter.  6:  Max. DC =  0.1819E-03  [K,I,J]    1   13    5
 Outer Iter.  1  Inner Iter.  7:  Max. DC =  0.5847E-04  [K,I,J]    1    7    5
 Transport Step:    2   Step Size:  3.9063E-02 Total Elapsed Time:   4.5000    
 Outer Iter.  1  Inner Iter.  1:  Max. DC =  0.3759E-02  [K,I,J]    1   13   10
 Outer Iter.  1  Inner Iter.  2:  Max. DC =  0.2125E-03  [K,I,J]    1   13    9
 Outer Iter.  1  Inner Iter.  3:  Max. DC =  0.1472E-04  [K,I,J]    1    7    5

 TIME STEP NO.   10
 FROM TIME =   4.5000     TO    5.0000    

 Transport Step:    1   Step Size:  0.4609     Total Elapsed Time:   4.9609    
 Outer Iter.  1  Inner Iter.  1:  Max. DC =  0.3924E-01  [K,I,J]    1   13   10
 Outer Iter.  1  Inner Iter.  2:  Max. DC =  0.1584E-01  [K,I,J]    1   13    9
 Outer Iter.  1  Inner Iter.  3:  Max. DC =  0.5439E-02  [K,I,J]    1   13    8
 Outer Iter.  1  Inner Iter.  4:  Max. DC =  0.1873E-02  [K,I,J]    1   13    7
 Outer Iter.  1  Inner Iter.  5:  Max. DC =  0.6033E-03  [K,I,J]    1    7    7
 Outer Iter.  1  Inner Iter.  6:  Max. DC =  0.2003E-03  [K,I,J]    1   13    5
 Outer Iter.  1  Inner Iter.  7:  Max. DC =  0.6443E-04  [K,I,J]    1    7    5
 Transport Step:    2   Step Size:  3.9051E-02 Total Elapsed Time:   5.0000    
 Outer Iter.  1  Inner Iter.  1:  Max. DC =  0.4072E-02  [K,I,J]    1   13   10
 Outer Iter.  1  Inner Iter.  2:  Max. DC =  0.2375E-03  [K,I,J]    1    9   19
 Outer Iter.  1  Inner Iter.  3:  Max. DC =  0.1472E-04  [K,I,J]    1    7    5

 TIME STEP NO.   11
 FROM TIME =   5.0000     TO    5.5000    

 Transport Step:    1   Step Size:  0.4609     Total Elapsed Time:   5.4609    
 Outer Iter.  1  Inner Iter.  1:  Max. DC =  0.4151E-01  [K,I,J]    1   13   10
 Outer Iter.  1  Inner Iter.  2:  Max. DC =  0.1709E-01  [K,I,J]    1   13    9
 Outer Iter.  1  Inner Iter.  3:  Max. DC =  0.5841E-02  [K,I,J]    1   13    8
 Outer Iter.  1  Inner Iter.  4:  Max. DC =  0.1994E-02  [K,I,J]    1   13    7
 Outer Iter.  1  Inner Iter.  5:  Max. DC =  0.6338E-03  [K,I,J]    1    7    7
 Outer Iter.  1  Inner Iter.  6:  Max. DC =  0.2177E-03  [K,I,J]    1   13    5
 Outer Iter.  1  Inner Iter.  7:  Max. DC =  0.6992E-04  [K,I,J]    1    7    5
 Transport Step:    2   Step Size:  3.9057E-02 Total Elapsed Time:   5.5000    
 Outer Iter.  1  Inner Iter.  1:  Max. DC =  0.4354E-02  [K,I,J]    1   13   10
 Outer Iter.  1  Inner Iter.  2:  Max. DC =  0.2718E-03  [K,I,J]    1    9   19
 Outer Iter.  1  Inner Iter.  3:  Max. DC =  0.1603E-04  [K,I,J]    1   13    8

 TIME STEP NO.   12
 FROM TIME =   5.5000     TO    6.0000    

 Transport Step:    1   Step Size:  0.4609     Total Elapsed Time:   5.9609    
 Outer Iter.  1  Inner Iter.  1:  Max. DC =  0.4479E-01  [K,I,J]    1    9   20
 Outer Iter.  1  Inner Iter.  2:  Max. DC =  0.1822E-01  [K,I,J]    1   13    9
 Outer Iter.  1  Inner Iter.  3:  Max. DC =  0.6184E-02  [K,I,J]    1   13    8
 Outer Iter.  1  Inner Iter.  4:  Max. DC =  0.2100E-02  [K,I,J]    1   13    7
 Outer Iter.  1  Inner Iter.  5:  Max. DC =  0.6659E-03  [K,I,J]    1    7    7
 Outer Iter.  1  Inner Iter.  6:  Max. DC =  0.2338E-03  [K,I,J]    1   13    5
 Outer Iter.  1  Inner Iter.  7:  Max. DC =  0.7480E-04  [K,I,J]    1    7    5
 Transport Step:    2   Step Size:  3.9052E-02 Total Elapsed Time:   6.0000    
 Outer Iter.  1  Inner Iter.  1:  Max. DC =  0.4604E-02  [K,I,J]    1   13   10
 Outer Iter.  1  Inner Iter.  2:  Max. DC =  0.3064E-03  [K,I,J]    1    9   19
 Outer Iter.  1  Inner Iter.  3:  Max. DC =  0.1723E-04  [K,I,J]    1   13    8

 TIME STEP NO.   13
 FROM TIME =   6.0000     TO    6.5000    

 Transport Step:    1   Step Size:  0.4609     Total Elapsed Time:   6.4609    
 Outer Iter.  1  Inner Iter.  1:  Max. DC =  0.4952E-01  [K,I,J]    1    9   20
 Outer Iter.  1  Inner Iter.  2:  Max. DC =  0.1923E-01  [K,I,J]    1   13    9
 Outer Iter.  1  Inner Iter.  3:  Max. DC =  0.6476E-02  [K,I,J]    1   13    8
 Outer Iter.  1  Inner Iter.  4:  Max. DC =  0.2188E-02  [K,I,J]    1   13    7
 Outer Iter.  1  Inner Iter.  5:  Max. DC =  0.6925E-03  [K,I,J]    1    7    7
 Outer Iter.  1  Inner Iter.  6:  Max. DC =  0.2484E-03  [K,I,J]    1   13    5
 Outer Iter.  1  Inner Iter.  7:  Max. DC =  0.7886E-04  [K,I,J]    1    7    5
 Transport Step:    2   Step Size:  3.9054E-02 Total Elapsed Time:   6.5000    
 Outer Iter.  1  Inner Iter.  1:  Max. DC =  0.4826E-02  [K,I,J]    1   13   10
 Outer Iter.  1  Inner Iter.  2:  Max. DC =  0.3414E-03  [K,I,J]    1    9   19
 Outer Iter.  1  Inner Iter.  3:  Max. DC =  0.1836E-04  [K,I,J]    1   13    8

 TIME STEP NO.   14
 FROM TIME =   6.5000     TO    7.0000    

 Transport Step:    1   Step Size:  0.4609     Total Elapsed Time:   6.9609    
 Outer Iter.  1  Inner Iter.  1:  Max. DC =  0.5424E-01  [K,I,J]    1    9   20
 Outer Iter.  1  Inner Iter.  2:  Max. DC =  0.2012E-01  [K,I,J]    1   13    9
 Outer Iter.  1  Inner Iter.  3:  Max. DC =  0.6723E-02  [K,I,J]    1   13    8
 Outer Iter.  1  Inner Iter.  4:  Max. DC =  0.2267E-02  [K,I,J]    1   13    7
 Outer Iter.  1  Inner Iter.  5:  Max. DC =  0.7156E-03  [K,I,J]    1    7    7
 Outer Iter.  1  Inner Iter.  6:  Max. DC =  0.2614E-03  [K,I,J]    1   13    5
 Outer Iter.  1  Inner Iter.  7:  Max. DC =  0.8237E-04  [K,I,J]    1    7    5
 Transport Step:    2   Step Size:  3.9052E-02 Total Elapsed Time:   7.0000    
 Outer Iter.  1  Inner Iter.  1:  Max. DC =  0.5021E-02  [K,I,J]    1   13   10
 Outer Iter.  1  Inner Iter.  2:  Max. DC =  0.3763E-03  [K,I,J]    1    9   19
 Outer Iter.  1  Inner Iter.  3:  Max. DC =  0.1925E-04  [K,I,J]    1   13    8

 TIME STEP NO.   15
 FROM TIME =   7.0000     TO    7.5000    

 Transport Step:    1   Step Size:  0.4609     Total Elapsed Time:   7.4609    
 Outer Iter.  1  Inner Iter.  1:  Max. DC =  0.5887E-01  [K,I,J]    1    9   20
 Outer Iter.  1  Inner Iter.  2:  Max. DC =  0.2090E-01  [K,I,J]    1   13    9
 Outer Iter.  1  Inner Iter.  3:  Max. DC =  0.6931E-02  [K,I,J]    1   13    8
 Outer Iter.  1  Inner Iter.  4:  Max. DC =  0.2332E-02  [K,I,J]    1   13    7
 Outer Iter.  1  Inner Iter.  5:  Max. DC =  0.7388E-03  [K,I,J]    1    7    7
 Outer Iter.  1  Inner Iter.  6:  Max. DC =  0.2723E-03  [K,I,J]    1   13    5
 Outer Iter.  1  Inner Iter.  7:  Max. DC =  0.8595E-04  [K,I,J]    1    7    5
 Transport Step:    2   Step Size:  3.9053E-02 Total Elapsed Time:   7.5000    
 Outer Iter.  1  Inner Iter.  1:  Max. DC =  0.5403E-02  [K,I,J]    1    9   20
 Outer Iter.  1  Inner Iter.  2:  Max. DC =  0.4108E-03  [K,I,J]    1    9   19
 Outer Iter.  1  Inner Iter.  3:  Max. DC =  0.2015E-04  [K,I,J]    1   13    8

 TIME STEP NO.   16
 FROM TIME =   7.5000     TO    8.0000    

 Transport Step:    1   Step Size:  0.4609     Total Elapsed Time:   7.9609    
 Outer Iter.  1  Inner Iter.  1:  Max. DC =  0.6334E-01  [K,I,J]    1    9   20
 Outer Iter.  1  Inner Iter.  2:  Max. DC =  0.2159E-01  [K,I,J]    1   13    9
 Outer Iter.  1  Inner Iter.  3:  Max. DC =  0.7084E-02  [K,I,J]    1   13    8
 Outer Iter.  1  Inner Iter.  4:  Max. DC =  0.2371E-02  [K,I,J]    1   13    7
 Outer Iter.  1  Inner Iter.  5:  Max. DC =  0.7663E-03  [K,I,J]    1    7    7
 Outer Iter.  1  Inner Iter.  6:  Max. DC =  0.2828E-03  [K,I,J]    1   13    5
 Outer Iter.  1  Inner Iter.  7:  Max. DC =  0.8994E-04  [K,I,J]    1    7    5
 Transport Step:    2   Step Size:  3.9053E-02 Total Elapsed Time:   8.0000    
 Outer Iter.  1  Inner Iter.  1:  Max. DC =  0.5853E-02  [K,I,J]    1    9   20
 Outer Iter.  1  Inner Iter.  2:  Max. DC =  0.4447E-03  [K,I,J]    1    9   19
 Outer Iter.  1  Inner Iter.  3:  Max. DC =  0.2080E-04  [K,I,J]    1   13    8

 TIME STEP NO.   17
 FROM TIME =   8.0000     TO    8.5000    

 Transport Step:    1   Step Size:  0.4609     Total Elapsed Time:   8.4609    
 Outer Iter.  1  Inner Iter.  1:  Max. DC =  0.6770E-01  [K,I,J]    1    9   20
 Outer Iter.  1  Inner Iter.  2:  Max. DC =  0.2219E-01  [K,I,J]    1   13    9
 Outer Iter.  1  Inner Iter.  3:  Max. DC =  0.7237E-02  [K,I,J]    1   13    8
 Outer Iter.  1  Inner Iter.  4:  Max. DC =  0.2416E-02  [K,I,J]    1   13    7
 Outer Iter.  1  Inner Iter.  5:  Max. DC =  0.7874E-03  [K,I,J]    1    7    7
 Outer Iter.  1  Inner Iter.  6:  Max. DC =  0.2906E-03  [K,I,J]    1   13    5
 Outer Iter.  1  Inner Iter.  7:  Max. DC =  0.9376E-04  [K,I,J]    1    7    5
 Transport Step:    2   Step Size:  3.9053E-02 Total Elapsed Time:   8.5000    
 Outer Iter.  1  Inner Iter.  1:  Max. DC =  0.6294E-02  [K,I,J]    1    9   20
 Outer Iter.  1  Inner Iter.  2:  Max. DC =  0.4779E-03  [K,I,J]    1    9   19
 Outer Iter.  1  Inner Iter.  3:  Max. DC =  0.2152E-04  [K,I,J]    1   13    8

 TIME STEP NO.   18
 FROM TIME =   8.5000     TO    9.0000    

 Transport Step:    1   Step Size:  0.4609     Total Elapsed Time:   8.9609    
 Outer Iter.  1  Inner Iter.  1:  Max. DC =  0.7189E-01  [K,I,J]    1    9   20
 Outer Iter.  1  Inner Iter.  2:  Max. DC =  0.2271E-01  [K,I,J]    1    9   19
 Outer Iter.  1  Inner Iter.  3:  Max. DC =  0.7362E-02  [K,I,J]    1   13    8
 Outer Iter.  1  Inner Iter.  4:  Max. DC =  0.2459E-02  [K,I,J]    1   13    7
 Outer Iter.  1  Inner Iter.  5:  Max. DC =  0.8069E-03  [K,I,J]    1    7    7
 Outer Iter.  1  Inner Iter.  6:  Max. DC =  0.2967E-03  [K,I,J]    1   13    5
 Outer Iter.  1  Inner Iter.  7:  Max. DC =  0.9751E-04  [K,I,J]    1    7    5
 Transport Step:    2   Step Size:  3.9053E-02 Total Elapsed Time:   9.0000    
 Outer Iter.  1  Inner Iter.  1:  Max. DC =  0.6723E-02  [K,I,J]    1    9   20
 Outer Iter.  1  Inner Iter.  2:  Max. DC =  0.5102E-03  [K,I,J]    1    9   19
 Outer Iter.  1  Inner Iter.  3:  Max. DC =  0.2273E-04  [K,I,J]    1    9   18

 TIME STEP NO.   19
 FROM TIME =   9.0000     TO    9.5000    

 Transport Step:    1   Step Size:  0.4609     Total Elapsed Time:   9.4609    
 Outer Iter.  1  Inner Iter.  1:  Max. DC =  0.7589E-01  [K,I,J]    1    9   20
 Outer Iter.  1  Inner Iter.  2:  Max. DC =  0.2384E-01  [K,I,J]    1    9   19
 Outer Iter.  1  Inner Iter.  3:  Max. DC =  0.7461E-02  [K,I,J]    1   13    8
 Outer Iter.  1  Inner Iter.  4:  Max. DC =  0.2495E-02  [K,I,J]    1   13    7
 Outer Iter.  1  Inner Iter.  5:  Max. DC =  0.8250E-03  [K,I,J]    1    7    7
 Outer Iter.  1  Inner Iter.  6:  Max. DC =  0.3018E-03  [K,I,J]    1   13    5
 Outer Iter.  1  Inner Iter.  7:  Max. DC =  0.1012E-03  [K,I,J]    1    7    5
 Outer Iter.  1  Inner Iter.  8:  Max. DC =  0.3046E-04  [K,I,J]    1    7    4
 Transport Step:    2   Step Size:  3.9053E-02 Total Elapsed Time:   9.5000    
 Outer Iter.  1  Inner Iter.  1:  Max. DC =  0.7138E-02  [K,I,J]    1    9   20
 Outer Iter.  1  Inner Iter.  2:  Max. DC =  0.5413E-03  [K,I,J]    1    9   19
 Outer Iter.  1  Inner Iter.  3:  Max. DC =  0.2412E-04  [K,I,J]    1    9   18

 TIME STEP NO.   20
 FROM TIME =   9.5000     TO    10.000    

 Transport Step:    1   Step Size:  0.4609     Total Elapsed Time:   9.9609    
 Outer Iter.  1  Inner Iter.  1:  Max. DC =  0.7972E-01  [K,I,J]    1    9   20
 Outer Iter.  1  Inner Iter.  2:  Max. DC =  0.2491E-01  [K,I,J]    1    9   19
 Outer Iter.  1  Inner Iter.  3:  Max. DC =  0.7706E-02  [K,I,J]    1   10   19
 Outer Iter.  1  Inner Iter.  4:  Max. DC =  0.2524E-02  [K,I,J]    1   13    7
 Outer Iter.  1  Inner Iter.  5:  Max. DC =  0.8419E-03  [K,I,J]    1    7    7
 Outer Iter.  1  Inner Iter.  6:  Max. DC =  0.3062E-03  [K,I,J]    1   13    5
 Outer Iter.  1  Inner Iter.  7:  Max. DC =  0.1047E-03  [K,I,J]    1    7    5
 Outer Iter.  1  Inner Iter.  8:  Max. DC =  0.3171E-04  [K,I,J]    1    7    4
 Transport Step:    2   Step Size:  3.9053E-02 Total Elapsed Time:   10.000    
 Outer Iter.  1  Inner Iter.  1:  Max. DC =  0.7540E-02  [K,I,J]    1    9   20
 Outer Iter.  1  Inner Iter.  2:  Max. DC =  0.5715E-03  [K,I,J]    1    9   19
 Outer Iter.  1  Inner Iter.  3:  Max. DC =  0.2548E-04  [K,I,J]    1    9   18

 TIME STEP NO.   21
 FROM TIME =   10.000     TO    10.500    

 Transport Step:    1   Step Size:  0.4609     Total Elapsed Time:   10.461    
 Outer Iter.  1  Inner Iter.  1:  Max. DC =  0.8336E-01  [K,I,J]    1    9   20
 Outer Iter.  1  Inner Iter.  2:  Max. DC =  0.2592E-01  [K,I,J]    1    9   19
 Outer Iter.  1  Inner Iter.  3:  Max. DC =  0.8014E-02  [K,I,J]    1   10   19
 Outer Iter.  1  Inner Iter.  4:  Max. DC =  0.2546E-02  [K,I,J]    1   13    7
 Outer Iter.  1  Inner Iter.  5:  Max. DC =  0.8594E-03  [K,I,J]    1   13    7
 Outer Iter.  1  Inner Iter.  6:  Max. DC =  0.3099E-03  [K,I,J]    1   13    5
 Outer Iter.  1  Inner Iter.  7:  Max. DC =  0.1081E-03  [K,I,J]    1    7    5
 Outer Iter.  1  Inner Iter.  8:  Max. DC =  0.3284E-04  [K,I,J]    1    7    4
 Transport Step:    2   Step Size:  3.9053E-02 Total Elapsed Time:   10.500    
 Outer Iter.  1  Inner Iter.  1:  Max. DC =  0.7926E-02  [K,I,J]    1    9   20
 Outer Iter.  1  Inner Iter.  2:  Max. DC =  0.6006E-03  [K,I,J]    1    9   19
 Outer Iter.  1  Inner Iter.  3:  Max. DC =  0.2679E-04  [K,I,J]    1    9   18

 TIME STEP NO.   22
 FROM TIME =   10.500     TO    11.000    

 Transport Step:    1   Step Size:  0.4609     Total Elapsed Time:   10.961    
 Outer Iter.  1  Inner Iter.  1:  Max. DC =  0.8685E-01  [K,I,J]    1    9   20
 Outer Iter.  1  Inner Iter.  2:  Max. DC =  0.2687E-01  [K,I,J]    1    9   19
 Outer Iter.  1  Inner Iter.  3:  Max. DC =  0.8305E-02  [K,I,J]    1   10   19
 Outer Iter.  1  Inner Iter.  4:  Max. DC =  0.2562E-02  [K,I,J]    1   13    7
 Outer Iter.  1  Inner Iter.  5:  Max. DC =  0.8913E-03  [K,I,J]    1   13    7
 Outer Iter.  1  Inner Iter.  6:  Max. DC =  0.3131E-03  [K,I,J]    1   13    5
 Outer Iter.  1  Inner Iter.  7:  Max. DC =  0.1112E-03  [K,I,J]    1    7    5
 Outer Iter.  1  Inner Iter.  8:  Max. DC =  0.3397E-04  [K,I,J]    1    7    4
 Transport Step:    2   Step Size:  3.9053E-02 Total Elapsed Time:   11.000    
 Outer Iter.  1  Inner Iter.  1:  Max. DC =  0.8300E-02  [K,I,J]    1    9   20
 Outer Iter.  1  Inner Iter.  2:  Max. DC =  0.6288E-03  [K,I,J]    1    9   19
 Outer Iter.  1  Inner Iter.  3:  Max. DC =  0.2806E-04  [K,I,J]    1    9   18

 TIME STEP NO.   23
 FROM TIME =   11.000     TO    11.500    

 Transport Step:    1   Step Size:  0.4609     Total Elapsed Time:   11.461    
 Outer Iter.  1  Inner Iter.  1:  Max. DC =  0.9021E-01  [K,I,J]    1    9   20
 Outer Iter.  1  Inner Iter.  2:  Max. DC =  0.2778E-01  [K,I,J]    1    9   19
 Outer Iter.  1  Inner Iter.  3:  Max. DC =  0.8582E-02  [K,I,J]    1   10   19
 Outer Iter.  1  Inner Iter.  4:  Max. DC =  0.2572E-02  [K,I,J]    1   13    7
 Outer Iter.  1  Inner Iter.  5:  Max. DC =  0.9206E-03  [K,I,J]    1   13    7
 Outer Iter.  1  Inner Iter.  6:  Max. DC =  0.3158E-03  [K,I,J]    1   13    5
 Outer Iter.  1  Inner Iter.  7:  Max. DC =  0.1142E-03  [K,I,J]    1    7    5
 Outer Iter.  1  Inner Iter.  8:  Max. DC =  0.3499E-04  [K,I,J]    1    7    4
 Transport Step:    2   Step Size:  3.9053E-02 Total Elapsed Time:   11.500    
 Outer Iter.  1  Inner Iter.  1:  Max. DC =  0.8662E-02  [K,I,J]    1    9   20
 Outer Iter.  1  Inner Iter.  2:  Max. DC =  0.6560E-03  [K,I,J]    1    9   19
 Outer Iter.  1  Inner Iter.  3:  Max. DC =  0.2929E-04  [K,I,J]    1    9   18

 TIME STEP NO.   24
 FROM TIME =   11.500     TO    12.000    

 Transport Step:    1   Step Size:  0.4609     Total Elapsed Time:   11.961    
 Outer Iter.  1  Inner Iter.  1:  Max. DC =  0.9344E-01  [K,I,J]    1    9   20
 Outer Iter.  1  Inner Iter.  2:  Max. DC =  0.2865E-01  [K,I,J]    1    9   19
 Outer Iter.  1  Inner Iter.  3:  Max. DC =  0.8846E-02  [K,I,J]    1   10   19
 Outer Iter.  1  Inner Iter.  4:  Max. DC =  0.2579E-02  [K,I,J]    1   13    7
 Outer Iter.  1  Inner Iter.  5:  Max. DC =  0.9473E-03  [K,I,J]    1   13    7
 Outer Iter.  1  Inner Iter.  6:  Max. DC =  0.3234E-03  [K,I,J]    1   13    6
 Outer Iter.  1  Inner Iter.  7:  Max. DC =  0.1170E-03  [K,I,J]    1    7    5
 Outer Iter.  1  Inner Iter.  8:  Max. DC =  0.3588E-04  [K,I,J]    1    7    4
 Transport Step:    2   Step Size:  3.9053E-02 Total Elapsed Time:   12.000    
 Outer Iter.  1  Inner Iter.  1:  Max. DC =  0.9013E-02  [K,I,J]    1    9   20
 Outer Iter.  1  Inner Iter.  2:  Max. DC =  0.6823E-03  [K,I,J]    1    9   19
 Outer Iter.  1  Inner Iter.  3:  Max. DC =  0.3048E-04  [K,I,J]    1    9   18

 TIME STEP NO.   25
 FROM TIME =   12.000     TO    12.500    

 Transport Step:    1   Step Size:  0.4609     Total Elapsed Time:   12.461    
 Outer Iter.  1  Inner Iter.  1:  Max. DC =  0.9654E-01  [K,I,J]    1    9   20
 Outer Iter.  1  Inner Iter.  2:  Max. DC =  0.2948E-01  [K,I,J]    1    9   19
 Outer Iter.  1  Inner Iter.  3:  Max. DC =  0.9097E-02  [K,I,J]    1   10   19
 Outer Iter.  1  Inner Iter.  4:  Max. DC =  0.2581E-02  [K,I,J]    1   13    7
 Outer Iter.  1  Inner Iter.  5:  Max. DC =  0.9717E-03  [K,I,J]    1   13    7
 Outer Iter.  1  Inner Iter.  6:  Max. DC =  0.3337E-03  [K,I,J]    1   13    6
 Outer Iter.  1  Inner Iter.  7:  Max. DC =  0.1196E-03  [K,I,J]    1    7    5
 Outer Iter.  1  Inner Iter.  8:  Max. DC =  0.3678E-04  [K,I,J]    1    7    4
 Transport Step:    2   Step Size:  3.9053E-02 Total Elapsed Time:   12.500    
 Outer Iter.  1  Inner Iter.  1:  Max. DC =  0.9353E-02  [K,I,J]    1    9   20
 Outer Iter.  1  Inner Iter.  2:  Max. DC =  0.7079E-03  [K,I,J]    1    9   19
 Outer Iter.  1  Inner Iter.  3:  Max. DC =  0.3164E-04  [K,I,J]    1    9   18

 TIME STEP NO.   26
 FROM TIME =   12.500     TO    13.000    

 Transport Step:    1   Step Size:  0.4609     Total Elapsed Time:   12.961    
 Outer Iter.  1  Inner Iter.  1:  Max. DC =  0.9953E-01  [K,I,J]    1    9   20
 Outer Iter.  1  Inner Iter.  2:  Max. DC =  0.3026E-01  [K,I,J]    1    9   19
 Outer Iter.  1  Inner Iter.  3:  Max. DC =  0.9335E-02  [K,I,J]    1   10   19
 Outer Iter.  1  Inner Iter.  4:  Max. DC =  0.2577E-02  [K,I,J]    1   13    7
 Outer Iter.  1  Inner Iter.  5:  Max. DC =  0.9941E-03  [K,I,J]    1   13    7
 Outer Iter.  1  Inner Iter.  6:  Max. DC =  0.3430E-03  [K,I,J]    1   13    6
 Outer Iter.  1  Inner Iter.  7:  Max. DC =  0.1221E-03  [K,I,J]    1    7    5
 Outer Iter.  1  Inner Iter.  8:  Max. DC =  0.3761E-04  [K,I,J]    1    7    4
 Transport Step:    2   Step Size:  3.9053E-02 Total Elapsed Time:   13.000    
 Outer Iter.  1  Inner Iter.  1:  Max. DC =  0.9684E-02  [K,I,J]    1    9   20
 Outer Iter.  1  Inner Iter.  2:  Max. DC =  0.7328E-03  [K,I,J]    1    9   19
 Outer Iter.  1  Inner Iter.  3:  Max. DC =  0.3277E-04  [K,I,J]    1    9   18

 TIME STEP NO.   27
 FROM TIME =   13.000     TO    13.500    

 Transport Step:    1   Step Size:  0.4609     Total Elapsed Time:   13.461    
 Outer Iter.  1  Inner Iter.  1:  Max. DC =  0.1024      [K,I,J]    1    9   20
 Outer Iter.  1  Inner Iter.  2:  Max. DC =  0.3101E-01  [K,I,J]    1    9   19
 Outer Iter.  1  Inner Iter.  3:  Max. DC =  0.9562E-02  [K,I,J]    1   10   19
 Outer Iter.  1  Inner Iter.  4:  Max. DC =  0.2605E-02  [K,I,J]    1   10   18
 Outer Iter.  1  Inner Iter.  5:  Max. DC =  0.1014E-02  [K,I,J]    1   13    7
 Outer Iter.  1  Inner Iter.  6:  Max. DC =  0.3514E-03  [K,I,J]    1   13    6
 Outer Iter.  1  Inner Iter.  7:  Max. DC =  0.1245E-03  [K,I,J]    1    7    5
 Outer Iter.  1  Inner Iter.  8:  Max. DC =  0.3833E-04  [K,I,J]    1    7    4
 Transport Step:    2   Step Size:  3.9053E-02 Total Elapsed Time:   13.500    
 Outer Iter.  1  Inner Iter.  1:  Max. DC =  0.1001E-01  [K,I,J]    1    9   20
 Outer Iter.  1  Inner Iter.  2:  Max. DC =  0.7570E-03  [K,I,J]    1    9   19
 Outer Iter.  1  Inner Iter.  3:  Max. DC =  0.3386E-04  [K,I,J]    1    9   18

 TIME STEP NO.   28
 FROM TIME =   13.500     TO    14.000    

 Transport Step:    1   Step Size:  0.4609     Total Elapsed Time:   13.961    
 Outer Iter.  1  Inner Iter.  1:  Max. DC =  0.1052      [K,I,J]    1    9   20
 Outer Iter.  1  Inner Iter.  2:  Max. DC =  0.3173E-01  [K,I,J]    1    9   19
 Outer Iter.  1  Inner Iter.  3:  Max. DC =  0.9780E-02  [K,I,J]    1   10   19
 Outer Iter.  1  Inner Iter.  4:  Max. DC =  0.2645E-02  [K,I,J]    1   10   18
 Outer Iter.  1  Inner Iter.  5:  Max. DC =  0.1033E-02  [K,I,J]    1   13    7
 Outer Iter.  1  Inner Iter.  6:  Max. DC =  0.3592E-03  [K,I,J]    1   13    6
 Outer Iter.  1  Inner Iter.  7:  Max. DC =  0.1268E-03  [K,I,J]    1    7    5