#GMS MODFLOW Simulation
#16 October 2016
FREE
INTERNAL 1 (free) -1
1 1 1 1 1 1 1 1 1 1 
1 1 1 1 1 1 1 1 1 1 
1 
1 1 1 1 1 1 1 1 1 1 
1 1 1 1 1 1 1 1 1 1 
1 
1 1 1 1 1 1 1 1 1 1 
1 1 1 1 1 1 1 1 1 1 
1 
1 1 1 1 1 1 1 1 1 1 
1 1 1 1 1 1 1 1 1 1 
1 
1 1 1 1 1 1 1 1 1 1 
1 1 1 1 1 1 1 1 1 1 
1 
1 1 1 1 1 1 1 1 1 1 
1 1 1 1 1 1 1 1 1 1 
1 
1 1 1 1 1 1 1 1 1 1 
1 1 1 1 1 1 1 1 1 1 
1 
1 1 1 1 1 1 1 1 1 1 
1 1 1 1 1 1 1 1 1 1 
1 
1 1 1 1 1 1 1 1 1 1 
1 1 1 1 1 1 1 1 1 1 
1 
1 1 1 1 1 1 1 1 1 1 
1 1 1 1 1 1 1 1 1 1 
1 
1 1 1 1 1 1 1 1 1 1 
1 1 1 1 1 1 1 1 1 1 
1 
1 1 1 1 1 1 1 1 1 1 
1 1 1 1 1 1 1 1 1 1 
1 
1 1 1 1 1 1 1 1 1 1 
1 1 1 1 1 1 1 1 1 1 
1 
-999.0
INTERNAL 1 (free) -1
111.69515991211 111.34398651123 110.4602355957 109.31072235107 108.04761505127 106.73634338379 105.40374755859 104.06134796143 102.71477508545 101.36740112305 
100.02200317383 98.681671142578 97.350654602051 96.035430908203 94.746315002441 93.499923706055 92.322967529297 91.257141113281 90.363311767578 89.718002319336 
89.388656616211 
112.04632568359 111.87655639648 110.72601318359 109.42430877686 108.09577941895 106.75768280029 105.41354370117 104.06552886963 102.71556854248 101.36542510986 
100.01693725586 98.672355651855 97.334861755371 96.009330749512 94.703582763672 93.430488586426 92.211837768555 91.085151672363 90.114784240723 89.402046203613 
89.059310913086 
112.56726837158 113.38990783691 111.14294433594 109.56472015381 108.15351104736 106.78504943848 105.42720794678 104.07166290283 102.71655273438 101.36180114746 
100.00796508789 98.655944824219 97.307098388672 95.963447570801 94.628189086914 93.306625366211 92.008735656738 90.7568359375 89.60863494873 88.716079711914 
88.387222290039 
112.26556396484 112.08679962158 110.89112854004 109.53810882568 108.16851043701 106.80180358887 105.43856048584 104.07736968994 102.71716308594 101.35726165771 
99.997169494629 98.636375427246 97.274139404297 95.909187316895 94.539100646973 93.159072875977 91.759643554688 90.324836730957 88.846824645996 87.466430664063 
87.386283874512 
112.14263916016 111.80058288574 110.79666900635 109.52806854248 108.18061065674 106.81509399414 105.44787597656 104.08209228516 102.71746826172 101.35291290283 
99.987083435059 98.618240356445 97.24388885498 95.860054016113 94.4599609375 93.030921936035 91.545936584473 89.936027526855 87.987411499023 84.916526794434 
86.305191040039 
112.36175537109 112.17623138428 110.96689605713 109.59687805176 108.21077728271 106.83009338379 105.45574188232 104.0856628418 102.71769714355 101.34983825684 
99.980003356934 98.605628967285 97.223129272461 95.827186584473 94.409744262695 92.95873260498 91.457138061523 89.885940551758 88.250267028809 86.736190795898 
86.612762451172 
112.76640319824 113.57569122314 111.29781341553 109.6817779541 108.23552703857 106.83876800537 105.45934295654 104.08712005615 102.71781158447 101.34873962402 
99.977470397949 98.601127624512 97.215805053711 95.815818786621 94.393112182617 92.937126159668 91.437934875488 89.900329589844 88.39151763916 87.165199279785 
86.796905517578 
112.36175537109 112.17623138428 110.96689605713 109.59687805176 108.21077728271 106.83009338379 105.45574188232 104.0856628418 102.71769714355 101.34983825684 
99.980003356934 98.605628967285 97.223129272461 95.827186584473 94.409744262695 92.95873260498 91.457138061523 89.885940551758 88.250267028809 86.736190795898 
86.612762451172 
112.14263916016 111.80058288574 110.79666900635 109.52806854248 108.18061065674 106.81509399414 105.44787597656 104.08209228516 102.71746826172 101.35291290283 
99.987083435059 98.618240356445 97.24388885498 95.860054016113 94.4599609375 93.030921936035 91.545936584473 89.936027526855 87.987411499023 84.916526794434 
86.305191040039 
112.26556396484 112.08679962158 110.89112854004 109.53810882568 108.16851043701 106.80180358887 105.43856048584 104.07736968994 102.71716308594 101.35726165771 
99.997169494629 98.636375427246 97.274139404297 95.909187316895 94.539100646973 93.159072875977 91.759643554688 90.324836730957 88.846824645996 87.466430664063 
87.386283874512 
112.56726837158 113.38990783691 111.14294433594 109.56472015381 108.15351104736 106.78504943848 105.42720794678 104.07166290283 102.71655273438 101.36180114746 
100.00796508789 98.655944824219 97.307098388672 95.963447570801 94.628189086914 93.306625366211 92.008735656738 90.7568359375 89.60863494873 88.716079711914 
88.387222290039 
112.04632568359 111.87655639648 110.72601318359 109.42430877686 108.09577941895 106.75768280029 105.41354370117 104.06552886963 102.71556854248 101.36542510986 
100.01693725586 98.672355651855 97.334861755371 96.009330749512 94.703582763672 93.430488586426 92.211837768555 91.085151672363 90.114784240723 89.402046203613 
89.059310913086 
111.69515991211 111.34398651123 110.4602355957 109.31072235107 108.04761505127 106.73634338379 105.40374755859 104.06134796143 102.71477508545 101.36740112305 
100.02200317383 98.681671142578 97.350654602051 96.035430908203 94.746315002441 93.499923706055 92.322967529297 91.257141113281 90.363311767578 89.718002319336 
89.388656616211 
