GMS MT3D Simulation
16 October 2016
         1        13        21         1         1         1
   d   m   g
 T T T T T F F F F F
 1
         0 5.0000000                              
         0 5.0000000                              
         0 5.0000000                              
         0 5.0000000                              
         0 0.3000000                              
         0         1                              
       100 1.0000000           (10G15.6)        -1
      25.948120      31.442583      29.725206      26.451048      22.885551      19.255920      15.779880      12.590067       9.777992       7.390664
       5.434580       3.885551       2.698520       1.817282       1.182901  7.399081e-001  4.400947e-001  2.440149e-001  1.204427e-001  4.474350e-002
  5.796961e-003
      37.312946      43.935715      41.352959      37.049572      32.241005      27.296564      22.513016      18.083971      14.143522      10.765508
       7.971886       5.739877       4.014730       2.723324       1.786208       1.126927  6.783457e-001  3.869956e-001  2.055648e-001  9.152610e-002
  1.332702e-002
      43.850754      50.000000      45.805309      41.399555      36.238884      30.929873      25.711039      20.817364      16.411015      12.594384
       9.408385       6.841476       4.842667       3.336448       2.236717       1.457736  9.212608e-001  5.596989e-001  3.246885e-001  1.727577e-001
  3.031812e-002
      36.226711      44.380913      41.235889      36.631397      31.734137      26.832851      22.146208      17.825624      13.984853      10.690224
       7.963356       5.783202       4.097761       2.836466       1.921850       1.278658  8.398017e-001  5.490384e-001  3.614435e-001  2.355319e-001
  5.695640e-002
      26.510975      31.384495      29.926476      27.204212      24.090212      20.717768      17.316887      14.067012      11.110330       8.538057
       6.387590       4.656588       3.312315       2.303557       1.571208       1.056652  7.074030e-001  4.803790e-001  3.393570e-001  2.619369e-001
  9.492179e-002
      37.522636      44.376411      41.514603      37.160252      32.420792      27.569374      22.855051      18.459715      14.521806      11.125039
       8.301938       6.037737       4.283138       2.967832       2.013093       1.341731  8.849026e-001  5.858946e-001  4.003871e-001  2.825028e-001
  6.134798e-002
      44.088295      50.000000      45.891022      41.596455      36.548168      31.319851      26.139784      21.247776      16.816254      12.959059
       9.726988       7.115730       5.078592       3.541860       2.419291       1.623788       1.075308  7.047634e-001  4.540156e-001  2.698987e-001
  7.379410e-002
      37.521343      44.384640      41.543476      37.176743      32.432930      27.576458      22.858610      18.460779      14.521362      11.123827
       8.300467       6.036310       4.281905       2.966848       2.012351       1.341193  8.845221e-001  5.856150e-001  4.001400e-001  2.821596e-001
  6.189868e-002
      26.508654      31.383690      29.924709      27.200291      24.084972      20.711786      17.310719      14.061132      11.105053       8.533583
       6.383978       4.653811       3.310272       2.302118       1.570237       1.056025  7.070121e-001  4.801329e-001  3.391759e-001  2.617836e-001
  9.476154e-002
      36.276840      44.383091      41.206875      36.612804      31.717903      26.820782      22.137495      17.819708      13.981058      10.687945
       7.962071       5.782541       4.097451       2.836330       1.921783       1.278597  8.397139e-001  5.489008e-001  3.612559e-001  2.355228e-001
  5.651018e-002
      43.993660      50.000000      45.793255      41.384815      36.221455      30.912109      25.694221      20.802391      16.398359      12.584164
       9.400457       6.835537       4.838352       3.333391       2.234582       1.456248  9.202010e-001  5.589066e-001  3.241885e-001  1.727816e-001
  2.974841e-002
      37.825459      43.948757      41.281437      36.978531      32.159000      27.212816      22.432665      18.011597      14.081650      10.714984
       7.932296       5.709975       3.992891       2.707847       1.775538       1.119755  6.736522e-001  3.840598e-001  2.038143e-001  8.995926e-002
  1.464967e-002
      27.843008      31.963888      29.622456      26.211634      22.591965      18.967209      15.518210      12.366396       9.595260       7.247211
       5.325995       3.806137       2.642360       1.778903       1.157638  7.240294e-001  4.307596e-001  2.391688e-001  1.187159e-001  4.523369e-002
  8.400924e-003
 -999.0000
         0         0         0         0         T
        -1
         0
         T
 100.000000      200 1.0000000
       0.0      1000 1.0000000       0.0
